ieee24_scenario0.raw
0, 100.00, 33, 0, 1, 60.00
Two-line description provided by Python Script
IEEE 24-Bus System - Scenario 0 Export
     0, 'BUS0   ',   138.00, 2, 1, 1, 1,  1.03500, 102.44908
     1, 'BUS1   ',   138.00, 2, 1, 1, 1,  1.03547, 102.43498
     2, 'BUS2   ',   138.00, 1, 1, 1, 1,  0.98502, 101.33263
     3, 'BUS3   ',   138.00, 1, 1, 1, 1,  0.99676, 99.48859
     4, 'BUS4   ',   138.00, 1, 1, 1, 1,  1.02047, 99.59372
     5, 'BUS5   ',   138.00, 1, 1, 1, 1,  1.01219, 96.50274
     6, 'BUS6   ',   138.00, 2, 1, 1, 1,  1.01884, 103.65969
     7, 'BUS7   ',   138.00, 1, 1, 1, 1,  0.98986, 99.44059
     8, 'BUS8   ',   138.00, 1, 1, 1, 1,  1.00220, 101.54477
     9, 'BUS9   ',   138.00, 1, 1, 1, 1,  1.02941, 99.74642
    10, 'BUS10  ',   230.00, 1, 1, 1, 1,  1.00244, 108.36406
    11, 'BUS11  ',   230.00, 1, 1, 1, 1,  1.00132, 108.07825
    12, 'BUS12  ',   230.00, 3, 1, 1, 1,  1.02910, 112.98252
    13, 'BUS13  ',   230.00, 2, 1, 1, 1,  1.00884, 110.80119
    14, 'BUS14  ',   230.00, 2, 1, 1, 1,  1.00139, 117.59645
    15, 'BUS15  ',   230.00, 2, 1, 1, 1,  1.01156, 116.45345
    16, 'BUS16  ',   230.00, 1, 1, 1, 1,  1.02105, 119.89297
    17, 'BUS17  ',   230.00, 2, 1, 1, 1,  1.02458, 121.49049
    18, 'BUS18  ',   230.00, 1, 1, 1, 1,  1.00546, 113.96837
    19, 'BUS19  ',   230.00, 1, 1, 1, 1,  1.01166, 113.82415
    20, 'BUS20  ',   230.00, 2, 1, 1, 1,  1.02447, 122.63379
    21, 'BUS21  ',   230.00, 2, 1, 1, 1,  1.03949, 126.52037
    22, 'BUS22  ',   230.00, 2, 1, 1, 1,  1.01723, 114.37344
    23, 'BUS23  ',   230.00, 1, 1, 1, 1,  0.97161, 111.59316
0 / End of Bus Data
     0, '1 ', 1, 1, 1,  106.80281,   20.41982, 0.0, 0.0, 0.0, 0.0, 1
     1, '1 ', 1, 1, 1,   95.90705,   22.06323, 0.0, 0.0, 0.0, 0.0, 1
     2, '1 ', 1, 1, 1,  190.98504,   35.54110, 0.0, 0.0, 0.0, 0.0, 1
     3, '1 ', 1, 1, 1,   77.13710,   14.83069, 0.0, 0.0, 0.0, 0.0, 1
     4, '1 ', 1, 1, 1,   69.12361,   13.84325, 0.0, 0.0, 0.0, 0.0, 1
     5, '1 ', 1, 1, 1,  147.53450,   26.89900, 0.0, 0.0, 0.0, 0.0, 1
     6, '1 ', 1, 1, 1,  132.92157,   23.61982, 0.0, 0.0, 0.0, 0.0, 1
     7, '1 ', 1, 1, 1,  157.59112,   33.52036, 0.0, 0.0, 0.0, 0.0, 1
     8, '1 ', 1, 1, 1,  188.81005,   34.10014, 0.0, 0.0, 0.0, 0.0, 1
     9, '1 ', 1, 1, 1,  212.72219,   44.51323, 0.0, 0.0, 0.0, 0.0, 1
    12, '1 ', 1, 1, 1,  248.90239,   53.68996, 0.0, 0.0, 0.0, 0.0, 1
    13, '1 ', 1, 1, 1,  193.39850,   35.77732, 0.0, 0.0, 0.0, 0.0, 1
    14, '1 ', 1, 1, 1,  297.65139,   70.92012, 0.0, 0.0, 0.0, 0.0, 1
    15, '1 ', 1, 1, 1,   92.69719,   21.37145, 0.0, 0.0, 0.0, 0.0, 1
    17, '1 ', 1, 1, 1,  364.82095,   65.87831, 0.0, 0.0, 0.0, 0.0, 1
    18, '1 ', 1, 1, 1,  173.10196,   37.47433, 0.0, 0.0, 0.0, 0.0, 1
    19, '1 ', 1, 1, 1,  117.75598,   23.82847, 0.0, 0.0, 0.0, 0.0, 1
0 / End of Load Data
     5, '1 ', 1,    0.00000,   -1.00000
0 / End of Fixed Shunt Data
     0, '1 ',     20.000,      5.017,     10.000,      0.000, 1.0000, 0, 100.0, 0.0, 1.0, 0.0, 0.0, 1.0, 1, 100.0,     20.000,     16.000
     0, '1 ',     20.000,      5.017,     10.000,      0.000, 1.0000, 0, 100.0, 0.0, 1.0, 0.0, 0.0, 1.0, 1, 100.0,     20.000,     16.000
     0, '1 ',     76.000,      3.002,     30.000,    -25.000, 1.0000, 0, 100.0, 0.0, 1.0, 0.0, 0.0, 1.0, 1, 100.0,     76.000,     15.200
     0, '1 ',     76.000,      3.002,     30.000,    -25.000, 1.0000, 0, 100.0, 0.0, 1.0, 0.0, 0.0, 1.0, 1, 100.0,     76.000,     15.200
     1, '1 ',     20.000,      5.073,     10.000,      0.000, 1.0000, 0, 100.0, 0.0, 1.0, 0.0, 0.0, 1.0, 1, 100.0,     20.000,     16.000
     1, '1 ',     20.000,      5.073,     10.000,      0.000, 1.0000, 0, 100.0, 0.0, 1.0, 0.0, 0.0, 1.0, 1, 100.0,     20.000,     16.000
     1, '1 ',     76.000,      4.700,     30.000,    -25.000, 1.0000, 0, 100.0, 0.0, 1.0, 0.0, 0.0, 1.0, 1, 100.0,     76.000,     15.200
     1, '1 ',     76.000,      4.700,     30.000,    -25.000, 1.0000, 0, 100.0, 0.0, 1.0, 0.0, 0.0, 1.0, 1, 100.0,     76.000,     15.200
     6, '1 ',    100.000,     18.483,     60.000,      0.000, 1.0000, 0, 100.0, 0.0, 1.0, 0.0, 0.0, 1.0, 1, 100.0,    100.000,     25.000
     6, '1 ',    100.000,     18.483,     60.000,      0.000, 1.0000, 0, 100.0, 0.0, 1.0, 0.0, 0.0, 1.0, 1, 100.0,    100.000,     25.000
     6, '1 ',     59.174,      0.024,     60.000,      0.000, 1.0000, 0, 100.0, 0.0, 1.0, 0.0, 0.0, 1.0, 1, 100.0,    100.000,     25.000
    12, '1 ',    197.000,     44.934,     80.000,      0.000, 1.0000, 0, 100.0, 0.0, 1.0, 0.0, 0.0, 1.0, 1, 100.0,    197.000,     69.000
    12, '1 ',    197.000,     44.934,     80.000,      0.000, 1.0000, 0, 100.0, 0.0, 1.0, 0.0, 0.0, 1.0, 1, 100.0,    197.000,     69.000
    12, '1 ',    197.000,     44.934,     80.000,      0.000, 1.0000, 0, 100.0, 0.0, 1.0, 0.0, 0.0, 1.0, 1, 100.0,    197.000,     69.000
    13, '1 ',      0.000,     87.493,    200.000,    -50.000, 1.0000, 0, 100.0, 0.0, 1.0, 0.0, 0.0, 1.0, 1, 100.0,      0.000,      0.000
    14, '1 ',     12.000,      2.773,      6.000,      0.000, 1.0000, 0, 100.0, 0.0, 1.0, 0.0, 0.0, 1.0, 1, 100.0,     12.000,      2.400
    14, '1 ',      4.691,      0.007,      6.000,      0.000, 1.0000, 0, 100.0, 0.0, 1.0, 0.0, 0.0, 1.0, 1, 100.0,     12.000,      2.400
    14, '1 ',     12.000,      2.773,      6.000,      0.000, 1.0000, 0, 100.0, 0.0, 1.0, 0.0, 0.0, 1.0, 1, 100.0,     12.000,      2.400
    14, '1 ',     12.000,      2.773,      6.000,      0.000, 1.0000, 0, 100.0, 0.0, 1.0, 0.0, 0.0, 1.0, 1, 100.0,     12.000,      2.400
    14, '1 ',     12.000,      2.773,      6.000,      0.000, 1.0000, 0, 100.0, 0.0, 1.0, 0.0, 0.0, 1.0, 1, 100.0,     12.000,      2.400
    14, '1 ',    155.000,    -33.078,     80.000,    -50.000, 1.0000, 0, 100.0, 0.0, 1.0, 0.0, 0.0, 1.0, 1, 100.0,    155.000,     54.300
    15, '1 ',    155.000,     79.580,     80.000,    -50.000, 1.0000, 0, 100.0, 0.0, 1.0, 0.0, 0.0, 1.0, 1, 100.0,    155.000,     54.300
    17, '1 ',    400.000,     83.043,    200.000,    -50.000, 1.0000, 0, 100.0, 0.0, 1.0, 0.0, 0.0, 1.0, 1, 100.0,    400.000,    100.000
    20, '1 ',    400.000,     20.783,    200.000,    -50.000, 1.0000, 0, 100.0, 0.0, 1.0, 0.0, 0.0, 1.0, 1, 100.0,    400.000,    100.000
    21, '1 ',     50.000,      1.082,     16.000,    -10.000, 1.0000, 0, 100.0, 0.0, 1.0, 0.0, 0.0, 1.0, 1, 100.0,     50.000,     10.000
    21, '1 ',     50.000,      1.082,     16.000,    -10.000, 1.0000, 0, 100.0, 0.0, 1.0, 0.0, 0.0, 1.0, 1, 100.0,     50.000,     10.000
    21, '1 ',     49.139,      1.082,     16.000,    -10.000, 1.0000, 0, 100.0, 0.0, 1.0, 0.0, 0.0, 1.0, 1, 100.0,     50.000,     10.000
    21, '1 ',      0.000,      0.000,     16.000,    -10.000, 1.0000, 0, 100.0, 0.0, 1.0, 0.0, 0.0, 1.0, 0, 100.0,     50.000,     10.000
    21, '1 ',     50.000,      1.082,     16.000,    -10.000, 1.0000, 0, 100.0, 0.0, 1.0, 0.0, 0.0, 1.0, 1, 100.0,     50.000,     10.000
    21, '1 ',     50.000,      1.082,     16.000,    -10.000, 1.0000, 0, 100.0, 0.0, 1.0, 0.0, 0.0, 1.0, 1, 100.0,     50.000,     10.000
    22, '1 ',     59.122,    -12.968,     80.000,    -50.000, 1.0000, 0, 100.0, 0.0, 1.0, 0.0, 0.0, 1.0, 1, 100.0,    155.000,     54.300
    22, '1 ',     56.822,    -12.968,     80.000,    -50.000, 1.0000, 0, 100.0, 0.0, 1.0, 0.0, 0.0, 1.0, 1, 100.0,    155.000,     54.300
    22, '1 ',    142.522,     34.532,    150.000,    -25.000, 1.0000, 0, 100.0, 0.0, 1.0, 0.0, 0.0, 1.0, 1, 100.0,    350.000,    140.000
0 / End of Generator Data
     0,      0, '1 ',   0.002408,   0.012542,   0.461100,   175.00, 0.0, 0.0,  1.00000,  0.00000, 1, 0.0, 0.0
     0,      0, '1 ',   0.058509,   0.171270,   0.057200,   175.00, 0.0, 0.0,  1.00000,  0.00000, 1, 0.0, 0.0
     0,      0, '1 ',   0.018785,   0.083422,   0.022900,   175.00, 0.0, 0.0,  1.00000,  0.00000, 1, 0.0, 0.0
     0,      0, '1 ',   0.034695,   0.140153,   0.034300,   175.00, 0.0, 0.0,  1.00000,  0.00000, 1, 0.0, 0.0
     0,      0, '1 ',   0.040876,   0.200263,   0.052000,   175.00, 0.0, 0.0,  1.00000,  0.00000, 1, 0.0, 0.0
     0,      0, '1 ',   0.029058,   0.117090,   0.032200,   175.00, 0.0, 0.0,  1.00000,  0.00000, 1, 0.0, 0.0
     0,      0, '1 ',   0.002123,   0.099945,   0.000000,   400.00, 0.0, 0.0,  1.03000,  0.00000, 1, 0.0, 0.0
     0,      0, '1 ',   0.026008,   0.098316,   0.028100,   175.00, 0.0, 0.0,  1.00000,  0.00000, 1, 0.0, 0.0
     0,      0, '1 ',   0.020320,   0.084086,   0.023900,   175.00, 0.0, 0.0,  1.00000,  0.00000, 1, 0.0, 0.0
     0,      0, '1 ',   0.014965,   0.063253,   2.459000,   175.00, 0.0, 0.0,  1.00000,  0.00000, 1, 0.0, 0.0
     0,      0, '1 ',   0.018683,   0.060875,   0.016600,   175.00, 0.0, 0.0,  1.00000,  0.00000, 1, 0.0, 0.0
     0,      0, '1 ',   0.038976,   0.154699,   0.044700,   175.00, 0.0, 0.0,  1.00000,  0.00000, 1, 0.0, 0.0
     0,      0, '1 ',   0.047659,   0.154633,   0.044700,   175.00, 0.0, 0.0,  1.00000,  0.00000, 1, 0.0, 0.0
     0,      0, '1 ',   0.002436,   0.094117,   0.000000,   400.00, 0.0, 0.0,  1.03000,  0.00000, 1, 0.0, 0.0
     0,      0, '1 ',   0.002475,   0.084792,   0.000000,   400.00, 0.0, 0.0,  1.03000,  0.00000, 1, 0.0, 0.0
     0,      0, '1 ',   0.002560,   0.091475,   0.000000,   400.00, 0.0, 0.0,  1.02000,  0.00000, 1, 0.0, 0.0
     0,      0, '1 ',   0.002118,   0.091719,   0.000000,   400.00, 0.0, 0.0,  1.02000,  0.00000, 1, 0.0, 0.0
     0,      0, '1 ',   0.006524,   0.043677,   0.099900,   500.00, 0.0, 0.0,  1.00000,  0.00000, 1, 0.0, 0.0
     0,      0, '1 ',   0.004858,   0.044959,   0.087900,   500.00, 0.0, 0.0,  1.00000,  0.00000, 1, 0.0, 0.0
     0,      0, '1 ',   0.005478,   0.052879,   0.099900,   500.00, 0.0, 0.0,  1.00000,  0.00000, 1, 0.0, 0.0
     0,      0, '1 ',   0.013051,   0.090845,   0.203000,   500.00, 0.0, 0.0,  1.00000,  0.00000, 1, 0.0, 0.0
     0,      0, '1 ',   0.011575,   0.092677,   0.181800,   500.00, 0.0, 0.0,  1.00000,  0.00000, 1, 0.0, 0.0
     0,      0, '1 ',   0.005549,   0.033654,   0.081800,   500.00, 0.0, 0.0,  1.00000,  0.00000, 1, 0.0, 0.0
     0,      0, '1 ',   0.002262,   0.015421,   0.036400,   500.00, 0.0, 0.0,  1.00000,  0.00000, 1, 0.0, 0.0
     0,      0, '1 ',   0.005702,   0.055350,   0.103000,   500.00, 0.0, 0.0,  1.00000,  0.00000, 1, 0.0, 0.0
     0,      0, '1 ',   0.006010,   0.042828,   0.103000,   500.00, 0.0, 0.0,  1.00000,  0.00000, 1, 0.0, 0.0
     0,      0, '1 ',   0.006345,   0.062045,   0.109100,   500.00, 0.0, 0.0,  1.00000,  0.00000, 1, 0.0, 0.0
     0,      0, '1 ',   0.002988,   0.020832,   0.054500,   500.00, 0.0, 0.0,  1.00000,  0.00000, 1, 0.0, 0.0
     0,      0, '1 ',   0.003322,   0.024170,   0.048500,   500.00, 0.0, 0.0,  1.00000,  0.00000, 1, 0.0, 0.0
     0,      0, '1 ',   0.001739,   0.016282,   0.030300,   500.00, 0.0, 0.0,  1.00000,  0.00000, 1, 0.0, 0.0
     0,      0, '1 ',   0.013108,   0.101593,   0.221200,   500.00, 0.0, 0.0,  1.00000,  0.00000, 1, 0.0, 0.0
     0,      0, '1 ',   0.002754,   0.027573,   0.054500,   500.00, 0.0, 0.0,  1.00000,  0.00000, 1, 0.0, 0.0
     0,      0, '1 ',   0.003938,   0.029575,   0.054500,   500.00, 0.0, 0.0,  1.00000,  0.00000, 1, 0.0, 0.0
     0,      0, '1 ',   0.004385,   0.039861,   0.083300,   500.00, 0.0, 0.0,  1.00000,  0.00000, 1, 0.0, 0.0
     0,      0, '1 ',   0.004511,   0.045733,   0.083300,   500.00, 0.0, 0.0,  1.00000,  0.00000, 1, 0.0, 0.0
     0,      0, '1 ',   0.003133,   0.021650,   0.045500,   500.00, 0.0, 0.0,  1.00000,  0.00000, 1, 0.0, 0.0
     0,      0, '1 ',   0.002855,   0.017320,   0.045500,   500.00, 0.0, 0.0,  1.00000,  0.00000, 1, 0.0, 0.0
     0,      0, '1 ',   0.007430,   0.057593,   0.142400,   500.00, 0.0, 0.0,  1.00000,  0.00000, 1, 0.0, 0.0
0 / End of Branch Data
Q